data/sourcebus_22000.trafo_75620917_75620917/Loads.dss
New Load.75625999_nmi_elem_75625999 bus1=3109841.3 kV=0.23094010767585033 Vminpu=0.7 Vmaxpu=1.3 model=1 kW=0.0 kvar=0.0 Phases=1
New Load.75626004_nmi_elem_75626004 bus1=3110751.2 kV=0.23094010767585033 Vminpu=0.7 Vmaxpu=1.3 model=1 kW=0.0 kvar=0.0 Phases=1
New Load.75628180_nmi_elem_75628180 bus1=3109027.1 kV=0.23094010767585033 Vminpu=0.7 Vmaxpu=1.3 model=1 kW=0.0 kvar=0.0 Phases=1
New Load.75628536_nmi_elem_75628536 bus1=3111411.3 kV=0.23094010767585033 Vminpu=0.7 Vmaxpu=1.3 model=1 kW=0.0 kvar=0.0 Phases=1
New Load.NMI_elem_75621714 bus1=3110654.1 kV=0.23094010767585033 Vminpu=0.7 Vmaxpu=1.3 model=1 kW=1.701209385229582 kvar=0.3454452992227166 Phases=1
New Load.NMI_elem_75621802 bus1=3109897.2 kV=0.23094010767585033 Vminpu=0.7 Vmaxpu=1.3 model=1 kW=0.6285845517203921 kvar=0.12763953716756873 Phases=1
New Load.NMI_elem_75621803 bus1=3110706.2 kV=0.23094010767585033 Vminpu=0.7 Vmaxpu=1.3 model=1 kW=1.0858515054961266 kvar=0.22049155235346052 Phases=1
New Load.NMI_elem_75621804 bus1=3110707.2 kV=0.23094010767585033 Vminpu=0.7 Vmaxpu=1.3 model=1 kW=2.3770323772650266 kvar=0.4826770108110992 Phases=1
New Load.NMI_elem_75621821 bus1=3108652.3 kV=0.23094010767585033 Vminpu=0.7 Vmaxpu=1.3 model=1 kW=3.0830877452515737 kvar=0.6260476681678965 Phases=1
New Load.NMI_elem_75621822 bus1=3108861.1 kV=0.23094010767585033 Vminpu=0.7 Vmaxpu=1.3 model=1 kW=3.0320702729592917 kvar=0.6156881285752933 Phases=1
New Load.NMI_elem_75621823 bus1=3107998.3 kV=0.23094010767585033 Vminpu=0.7 Vmaxpu=1.3 model=1 kW=0.5051351326426081 kvar=0.10257206347358806 Phases=1
New Load.NMI_elem_75621824 bus1=3108984.2 kV=0.23094010767585033 Vminpu=0.7 Vmaxpu=1.3 model=1 kW=0.23178269522998862 kvar=0.047065483651541076 Phases=1
New Load.NMI_elem_75621825 bus1=3110716.1 kV=0.23094010767585033 Vminpu=0.7 Vmaxpu=1.3 model=1 kW=1.099708036168145 kvar=0.22330524091275455 Phases=1
New Load.NMI_elem_75621826 bus1=3110717.3 kV=0.23094010767585033 Vminpu=0.7 Vmaxpu=1.3 model=1 kW=1.620922751335989 kvar=0.3291424028774709 Phases=1
New Load.NMI_elem_75621827 bus1=3110718.1 kV=0.23094010767585033 Vminpu=0.7 Vmaxpu=1.3 model=1 kW=0.9290202969085698 kvar=0.18864561719205908 Phases=1
New Load.NMI_elem_75621828 bus1=3110719.3 kV=0.23094010767585033 Vminpu=0.7 Vmaxpu=1.3 model=1 kW=0.4566370950906529 kvar=0.0927241169249104 Phases=1
New Load.NMI_elem_75621829 bus1=3110720.3 kV=0.23094010767585033 Vminpu=0.7 Vmaxpu=1.3 model=1 kW=0.9598826516780153 kvar=0.1949124856155542 Phases=1
New Load.NMI_elem_75621830 bus1=3110721.3 kV=0.23094010767585033 Vminpu=0.7 Vmaxpu=1.3 model=1 kW=1.0102702652852162 kvar=0.20514412694717613 Phases=1
New Load.NMI_elem_75621831 bus1=3110722.3 kV=0.23094010767585033 Vminpu=0.7 Vmaxpu=1.3 model=1 kW=0.9365784209296607 kvar=0.19018035973268746 Phases=1
New Load.NMI_elem_75621832 bus1=3110723.3 kV=0.23094010767585033 Vminpu=0.7 Vmaxpu=1.3 model=1 kW=0.6701543239363381 kvar=0.13608063943659937 Phases=1
New Load.NMI_elem_75621833 bus1=3110724.3 kV=0.23094010767585033 Vminpu=0.7 Vmaxpu=1.3 model=1 kW=1.067586084161796 kvar=0.21678260036139554 Phases=1
New Load.NMI_elem_75621834 bus1=3110725.3 kV=0.23094010767585033 Vminpu=0.7 Vmaxpu=1.3 model=1 kW=1.2823629703110146 kvar=0.2603949071979979 Phases=1
New Load.NMI_elem_75621835 bus1=3110726.1 kV=0.23094010767585033 Vminpu=0.7 Vmaxpu=1.3 model=1 kW=1.048060825324041 kvar=0.2128178274532688 Phases=1
New Load.NMI_elem_75621836 bus1=3110727.1 kV=0.23094010767585033 Vminpu=0.7 Vmaxpu=1.3 model=1 kW=0.8036813017755404 kvar=0.16319444871513414 Phases=1
New Load.NMI_elem_75621837 bus1=3110728.1 kV=0.23094010767585033 Vminpu=0.7 Vmaxpu=1.3 model=1 kW=0.9806675077526734 kvar=0.19913303065154478 Phases=1
New Load.NMI_elem_75621838 bus1=3110729.3 kV=0.23094010767585033 Vminpu=0.7 Vmaxpu=1.3 model=1 kW=0.9479156369946125 kvar=0.19248247964215492 Phases=1
New Load.NMI_elem_75621839 bus1=3108017.3 kV=0.23094010767585033 Vminpu=0.7 Vmaxpu=1.3 model=1 kW=1.459349176288148 kvar=0.2963334891344086 Phases=1
New Load.NMI_elem_75621840 bus1=3108455.3 kV=0.23094010767585033 Vminpu=0.7 Vmaxpu=1.3 model=1 kW=1.5217037445121218 kvar=0.3089951242423803 Phases=1
New Load.NMI_elem_75621885 bus1=3110750.3 kV=0.23094010767585033 Vminpu=0.7 Vmaxpu=1.3 model=1 kW=1.2735450688531298 kvar=0.2586043559383572 Phases=1
New Load.NMI_elem_75621886 bus1=3107648.1 kV=0.23094010767585033 Vminpu=0.7 Vmaxpu=1.3 model=1 kW=1.2332350740739777 kvar=0.2504190623883389 Phases=1
New Load.NMI_elem_75621887 bus1=3109841.3 kV=0.23094010767585033 Vminpu=0.7 Vmaxpu=1.3 model=1 kW=1.4354151469213416 kvar=0.29147347718760996 Phases=1
New Load.NMI_elem_75621888 bus1=3108639.1 kV=0.23094010767585033 Vminpu=0.7 Vmaxpu=1.3 model=1 kW=1.121122750927885 kvar=0.2276536842097266 Phases=1
New Load.NMI_elem_75621889 bus1=3108557.1 kV=0.23094010767585033 Vminpu=0.7 Vmaxpu=1.3 model=1 kW=1.21245021799932 kvar=0.24619851735234827 Phases=1
New Load.NMI_elem_75621890 bus1=3107827.1 kV=0.23094010767585033 Vminpu=0.7 Vmaxpu=1.3 model=1 kW=1.8807150259470427 kvar=0.3818954742030529 Phases=1
New Load.NMI_elem_75621891 bus1=3109811.2 kV=0.23094010767585033 Vminpu=0.7 Vmaxpu=1.3 model=1 kW=2.385850158589651 kvar=0.48446753767664097 Phases=1
New Load.NMI_elem_75621892 bus1=3110751.2 kV=0.23094010767585033 Vminpu=0.7 Vmaxpu=1.3 model=1 kW=1.620922751335989 kvar=0.3291424028774709 Phases=1
New Load.NMI_elem_75621893 bus1=3110752.3 kV=0.23094010767585033 Vminpu=0.7 Vmaxpu=1.3 model=1 kW=0.05964995777916407 kvar=0.012112440533511954 Phases=1
New Load.NMI_elem_75621894 bus1=3109490.3 kV=0.23094010767585033 Vminpu=0.7 Vmaxpu=1.3 model=1 kW=2.3153074274596137 kvar=0.470143225175911 Phases=1
New Load.NMI_elem_75621895 bus1=3108016.1 kV=0.23094010767585033 Vminpu=0.7 Vmaxpu=1.3 model=1 kW=2.301451016920855 kvar=0.46732956101071577 Phases=1
New Load.NMI_elem_75621896 bus1=3109132.2 kV=0.23094010767585033 Vminpu=0.7 Vmaxpu=1.3 model=1 kW=1.0001927065237983 kvar=0.20309779136262207 Phases=1
New Load.NMI_elem_75621897 bus1=3107934.3 kV=0.23094010767585033 Vminpu=0.7 Vmaxpu=1.3 model=1 kW=1.620922751335989 kvar=0.3291424028774709 Phases=1
New Load.NMI_elem_75621898 bus1=3108688.1 kV=0.23094010767585033 Vminpu=0.7 Vmaxpu=1.3 model=1 kW=0.7205418174102785 kvar=0.14631225637412232 Phases=1
New Load.NMI_elem_75621899 bus1=3108475.3 kV=0.23094010767585033 Vminpu=0.7 Vmaxpu=1.3 model=1 kW=1.4687968162978542 kvar=0.2982519142609318 Phases=1
New Load.NMI_elem_75621900 bus1=3110753.3 kV=0.23094010767585033 Vminpu=0.7 Vmaxpu=1.3 model=1 kW=1.9701529169632321 kvar=0.4000566125627304 Phases=1
New Load.NMI_elem_75621901 bus1=3110754.1 kV=0.23094010767585033 Vminpu=0.7 Vmaxpu=1.3 model=1 kW=0.4483009350742497 kvar=0.0910313874371488 Phases=1
New Load.NMI_elem_75621902 bus1=3110755.2 kV=0.23094010767585033 Vminpu=0.7 Vmaxpu=1.3 model=1 kW=0.4531173601563335 kvar=0.09200940426336078 Phases=1
New Load.NMI_elem_75624052 bus1=3111266.3 kV=0.23094010767585033 Vminpu=0.7 Vmaxpu=1.3 model=1 kW=0.6852705719785203 kvar=0.13915012451785627 Phases=1
New Load.NMI_elem_75624068 bus1=3109027.1 kV=0.23094010767585033 Vminpu=0.7 Vmaxpu=1.3 model=1 kW=2.9464114139203326 kvar=0.5982943553874052 Phases=1
New Load.NMI_elem_75624084 bus1=3111278.1 kV=0.23094010767585033 Vminpu=0.7 Vmaxpu=1.3 model=1 kW=1.4108511387361928 kvar=0.2864855425857309 Phases=1
New Load.NMI_elem_75624085 bus1=3111279.1 kV=0.23094010767585033 Vminpu=0.7 Vmaxpu=1.3 model=1 kW=1.2376439647362898 kvar=0.2513143258211097 Phases=1
New Load.NMI_elem_75624135 bus1=3111298.3 kV=0.23094010767585033 Vminpu=0.7 Vmaxpu=1.3 model=1 kW=1.220638140638862 kvar=0.24786114595690859 Phases=1
New Load.NMI_elem_75624137 bus1=3111299.1 kV=0.23094010767585033 Vminpu=0.7 Vmaxpu=1.3 model=1 kW=0.647479891806435 kvar=0.1314763996176646 Phases=1
New Load.NMI_elem_75624168 bus1=3108152.3 kV=0.23094010767585033 Vminpu=0.7 Vmaxpu=1.3 model=1 kW=0.6052803209720371 kvar=0.12290741128470199 Phases=1
New Load.NMI_elem_75624174 bus1=3111318.1 kV=0.23094010767585033 Vminpu=0.7 Vmaxpu=1.3 model=1 kW=4.48071209186757 kvar=0.9098473960612159 Phases=1
New Load.NMI_elem_75624202 bus1=3108133.1.2.3 kV=0.4 Vminpu=0.7 Vmaxpu=1.3 model=1 kW=0.31121715412318507 kvar=0.06319533848258041 Phases=3
New Load.NMI_elem_75624424 bus1=3111411.3 kV=0.23094010767585033 Vminpu=0.7 Vmaxpu=1.3 model=1 kW=1.5928762141939803 kvar=0.3234473106099928 Phases=1
New Load.NMI_elem_75624564 bus1=3111462.1 kV=0.23094010767585033 Vminpu=0.7 Vmaxpu=1.3 model=1 kW=2.092972477355935 kvar=0.42499618799572975 Phases=1
New Load.NMI_elem_75624650 bus1=3111503.3 kV=0.23094010767585033 Vminpu=0.7 Vmaxpu=1.3 model=1 kW=2.894764203076229 kvar=0.5878069419279195 Phases=1
New Load.NMI_elem_75624652 bus1=3111505.1 kV=0.23094010767585033 Vminpu=0.7 Vmaxpu=1.3 model=1 kW=2.9420025232580205 kvar=0.5973990919546344 Phases=1
New Load.NMI_elem_75624868 bus1=3111584.2 kV=0.23094010767585033 Vminpu=0.7 Vmaxpu=1.3 model=1 kW=1.620922751335989 kvar=0.3291424028774709 Phases=1
New Load.NMI_elem_75624896 bus1=3111590.1 kV=0.23094010767585033 Vminpu=0.7 Vmaxpu=1.3 model=1 kW=1.8706375272522549 kvar=0.3798491508155484 Phases=1
New Load.NMI_elem_75625051 bus1=3109941.1 kV=0.23094010767585033 Vminpu=0.7 Vmaxpu=1.3 model=1 kW=1.620922751335989 kvar=0.3291424028774709 Phases=1
New Load.NMI_elem_75625133 bus1=3111664.1 kV=0.23094010767585033 Vminpu=0.7 Vmaxpu=1.3 model=1 kW=1.620922751335989 kvar=0.3291424028774709 Phases=1
New Load.NMI_elem_75625149 bus1=3111669.3 kV=0.23094010767585033 Vminpu=0.7 Vmaxpu=1.3 model=1 kW=1.620922751335989 kvar=0.3291424028774709 Phases=1
New Load.NMI_elem_75625150 bus1=3111670.3 kV=0.23094010767585033 Vminpu=0.7 Vmaxpu=1.3 model=1 kW=1.620922751335989 kvar=0.3291424028774709 Phases=1
New Load.NMI_elem_75625194 bus1=3111687.1 kV=0.23094010767585033 Vminpu=0.7 Vmaxpu=1.3 model=1 kW=1.3893623582879904 kvar=0.2821220596092608 Phases=1
